$# LS-DYNA Keyword file created by WB-LSDYNA 2025 R1
*KEYWORD
*PARAMETER_DUPLICATION
4
*DATABASE_FORMAT
$    iform   ibinary                                                      unused
         0         0                                                            
*CONTROL_TERMINATION
$   endtim    endcyc     dtmin    endeng    endmas                        unused
     0.001  10000000     0.001         0    100000                              
*CONTROL_TIMESTEP
$   dtinit    tssfac      isdo    tslimt     dt2ms      lctm     erode     ms1st
         0       0.9         0         0         0         0         1         0
$   dt2msf   dt2mslc     imscl                                            unused
         0         0         0                                                  
*CONTROL_CONTACT
$   slsfac    rwnpal    islchk    shlthk    penopt    thkchg     orien    enmass
         0         0         1         1         1         0         2         0
$   usrstr   usrfric     nsbcs    interm     xpene     ssthk      ecdt   tiedprj
         0         0         0         0         0         0         0         0
$    sfric     dfric       edc       vfc        th     th_sf    pen_sf    unused
         0         0         0         0         0         0         0          
$   ignore    frceng   skiprwg    outseg   spotstp   spotdel   spothin   unused1
         2         1         0         1         0         1       0.5          
$     isym    nserod    rwgaps    rwgdth     rwksf      icov    swradf    ithoff
         0         0         0         0         0         0         0         0
$   shledg    pstiff    ithcnt    tdcnof     ftall                       unused2
         1         0         0         0         1                              
*CONTROL_ENERGY
$     hgen      rwen    slnten     rylen                                  unused
         2         2         2         2                                        
*CONTROL_ACCURACY
$      osu       inn    pidosu                                            unused
         0         1         0                                                 0
*CONTROL_BULK_VISCOSITY
$       q1        q2      type                                            unused
       1.5      0.06        -2                                                  
*CONTROL_SOLID
$    esort    fmatrx   niptets    swlocl                                  unused
         1         0         0         0                                        
$    pm1     pm2     pm3     pm4     pm5     pm6     pm7     pm8     pm9    pm10
       0       0       0       0       0       0       0       0       0       0
*CONTROL_SHELL
$   wrpang     esort     irnxx    istupd    theory       bwc     miter      proj
        20         1        -1         4         2         1         1         1
$  rotascl    intgrd    lamsht    cstyp6    tshell    nfail1    nfail4   psnfail
         0         0         1         0         0         1         1         0
$   pstupd    irquad     cntco                                            unused
         0         0         2                                                  
*CONTROL_OUTPUT
$    npopt    neecho    nrefup    iaccop     opifs    ipnint    ikedit    iflush
         1         0         0         0         0         0         0         0
$    iprtf    ierode     tet10    msgmax    ipcurv                        unused
         0         0         0         0         0                              
*CONTROL_PARALLEL
$     ncpu    numrhs    consti      para                                  unused
         0         0         1         0                                        
*CONTROL_SOLUTION
$     soln       nlq     isnan     lcint                                  unused
         0         0         0         0                                        
*CONTROL_HOURGLASS
$      ihq        qh                                                     unused1
         5       0.1                                                            
*SECTION_SHELL
$       ID    elform      shrf       nip     propt        qr     icomp     setyp
         1         4  0.833333         3         0         0         0         0
$       t1        t2        t3        t4      nloc     marea              unused
       0.1       0.1       0.1       0.1         0         0                    
*MAT_ORTHOTROPIC_ELASTIC
$       ID        ro        Ea        Eb        Ec      Prba      Prca      Prcb
         1  1.65E-09      1950     18000     18000    0.0765    0.0698      0.08
$      Gab       Gbc       Gca      aopt         G      SIGF             unused1
     223.5      1860     223.5       -29         0         0                    
$       xp        yp        zp        A1        A2        A3      macf   unused2
         0         0         0         0         0         0         0          
$       V1        V2        V3        D1        D2        D3      beta       Ref
         0         0         0         0         0         0         0         0
$Material Id = {1,{47527DFF-B313-4C56-B736-83D870A0C299}, Orthotropic}
*PART
$                                                             partname   unused1
                                                          Surface Body          
$       ID     secid       mid     eosid      hgid      grav     adopt      tmid
         1         1         1         0         0         0         0         0
*NODE
       1   3000.00000000      0.00000000      0.00000000                        
       2   3000.00000000      0.00000000   4000.00000000                        
       3   3000.00000000      0.00000000    200.00000000                        
       4   3000.00000000      0.00000000    400.00000000                        
       5   3000.00000000      0.00000000    600.00000000                        
       6   3000.00000000      0.00000000    800.00000000                        
       7   3000.00000000      0.00000000   1000.00000000                        
       8   3000.00000000      0.00000000   1200.00000000                        
       9   3000.00000000      0.00000000   1400.00000000                        
      10   3000.00000000      0.00000000   1600.00000000                        
      11   3000.00000000      0.00000000   1800.00000000                        
      12   3000.00000000      0.00000000   2000.00000000                        
      13   3000.00000000      0.00000000   2200.00000000                        
      14   3000.00000000      0.00000000   2400.00000000                        
      15   3000.00000000      0.00000000   2600.00000000                        
      16   3000.00000000      0.00000000   2800.00000000                        
      17   3000.00000000      0.00000000   3000.00000000                        
      18   3000.00000000      0.00000000   3200.00000000                        
      19   3000.00000000      0.00000000   3400.00000000                        
      20   3000.00000000      0.00000000   3600.00000000                        
$ ... 85 like lines cut
*ELEMENT_SHELL
*MAT_ENHANCED_COMPOSITE_DAMAGE
$       ID        ro        Ea        Eb        Ec      Prba      Prca      Prcb
         2  1.65E-09      1950     18000     18000    0.0765    0.0698      0.08
$      Gab       Gbc       Gca        kf      aopt                       unused1
     223.5      1860     223.5         0         0                              
$       xp        yp        zp        A1        A2        A3    mangle   unused2
         0         0         0         0         0         0         0          
$       V1        V2        V3        D1        D2        D3    dfailm    dfails
         0         0         0         0         0         0         0         0
$    tfail      alph      soft      fbrt     ycfac    dfailt    dfailc       efs
         0         0         0         0         0         0         0         0
$       xc        xt        yc        yt        sc      crit      beta   unused3
         0         0         0         0         0         0         0          
$Material Id = {2,1c1c07b7-93da-4f89-b10e-43ca776ef7a5, Orthotropic}
$Material Unique Id = {2,1c1c07b7-93da-4f89-b10e-43ca776ef7a5, Orthotropic}
*MAT_ENHANCED_COMPOSITE_DAMAGE
$       ID        ro        Ea        Eb        Ec      Prba      Prca      Prcb
         3   1.6E-09    100000      8000      8000   0.02248   0.02248      0.47
$      Gab       Gbc       Gca        kf      aopt                       unused1
      4500      4500      4500         0         0                              
$       xp        yp        zp        A1        A2        A3    mangle   unused2
         0         0         0         0         0         0         0          
$       V1        V2        V3        D1        D2        D3    dfailm    dfails
         0         0         0         0         0         0         0         0
$    tfail      alph      soft      fbrt     ycfac    dfailt    dfailc       efs
         0         0         0         0         0         0         0         0
$       xc        xt        yc        yt        sc      crit      beta   unused3
         0         0         0         0         0         0         0          
$Material Id = {3,e96ce205-f3ed-4c80-a496-0f4edc5dabc2, CFRP}
$Material Unique Id = {3,e96ce205-f3ed-4c80-a496-0f4edc5dabc2, CFRP}
*ELEMENT_SHELL_OFFSET_COMPOSITE
       1       1      51      84      85      85
         -3.5000
         2    1.5000   -49.380                   2    1.5000  -109.380          
         3    1.0000   -79.380                   2    1.5000   -49.380          
         2    1.5000  -109.380          
*ELEMENT_SHELL_OFFSET_COMPOSITE
       2       1      52      61      66      66
         -3.5000
         2    1.5000    30.000                   2    1.5000   -30.000          
         3    1.0000     0.000                   2    1.5000    30.000          
         2    1.5000   -30.000          
*ELEMENT_SHELL_OFFSET_COMPOSITE
      13       1      61      67      86      86
         -3.5000
         2    1.5000   141.801                   2    1.5000    81.801          
         3    1.0000   111.801                   2    1.5000   141.801          
         2    1.5000    81.801          
*ELEMENT_SHELL_OFFSET_COMPOSITE
      14       1      52      66      90      90
         -3.5000
         2    1.5000   -21.340                   2    1.5000   -81.340          
         3    1.0000   -51.340                   2    1.5000   -21.340          
         2    1.5000   -81.340          
*ELEMENT_SHELL_OFFSET_COMPOSITE
      17       1      52      69      60      60
         -3.5000
         2    1.5000   -97.963                   2    1.5000  -157.963          
         3    1.0000  -127.963                   2    1.5000   -97.963          
         2    1.5000  -157.963          
*ELEMENT_SHELL_OFFSET_COMPOSITE
      21       1      52      67      61      61
         -3.5000
         2    1.5000    81.340                   2    1.5000    21.340          
         3    1.0000    51.340                   2    1.5000    81.340          
         2    1.5000    21.340          
*ELEMENT_SHELL_OFFSET_COMPOSITE
      22       1      51      61      86      86
         -3.5000
         2    1.5000   210.000                   2    1.5000   150.000          
         3    1.0000   180.000                   2    1.5000   210.000          
         2    1.5000   150.000          
*ELEMENT_SHELL_OFFSET_COMPOSITE
      26       1      51      85      61      61
         -3.5000
         2    1.5000   -94.134                   2    1.5000  -154.134          
         3    1.0000  -124.134                   2    1.5000   -94.134          
         2    1.5000  -154.134          
*ELEMENT_SHELL_OFFSET_COMPOSITE
      35       1      52      82      67      67
         -3.5000
         2    1.5000   119.215                   2    1.5000    59.215          
         3    1.0000    89.215                   2    1.5000   119.215          
         2    1.5000    59.215          
*ELEMENT_SHELL_OFFSET_COMPOSITE
      38       1      51      83      65      65
         -3.5000
         2    1.5000   107.857                   2    1.5000    47.857          
         3    1.0000    77.857                   2    1.5000   107.857          
         2    1.5000    47.857          
*ELEMENT_SHELL_OFFSET_COMPOSITE
      39       1      51      65      64      64
         -3.5000
         2    1.5000    50.588                   2    1.5000    -9.412          
         3    1.0000    20.588                   2    1.5000    50.588          
         2    1.5000    -9.412          
*ELEMENT_SHELL_OFFSET_COMPOSITE
      44       1      52      95      82      82
         -3.5000
         2    1.5000   162.512                   2    1.5000   102.512          
         3    1.0000   132.512                   2    1.5000   162.512          
         2    1.5000   102.512          
*ELEMENT_SHELL_OFFSET_COMPOSITE
      45       1      51      64      84      84
         -3.5000
         2    1.5000    -0.326                   2    1.5000   -60.326          
         3    1.0000   -30.326                   2    1.5000    -0.326          
         2    1.5000   -60.326          
*ELEMENT_SHELL_OFFSET_COMPOSITE
      46       1      61      85      66      66
         -3.5000
         2    1.5000   -33.919                   2    1.5000   -93.919          
         3    1.0000   -63.919                   2    1.5000   -33.919          
         2    1.5000   -93.919          
*ELEMENT_SHELL_OFFSET_COMPOSITE
      47       1      51      86      83      83
         -3.5000
         2    1.5000   154.124                   2    1.5000    94.124          
         3    1.0000   124.124                   2    1.5000   154.124          
         2    1.5000    94.124          
*ELEMENT_SHELL_OFFSET_COMPOSITE
      51       1      52      90      69      69
         -3.5000
         2    1.5000   -59.530                   2    1.5000  -119.530          
         3    1.0000   -89.530                   2    1.5000   -59.530          
         2    1.5000  -119.530          
*ELEMENT_SHELL_OFFSET_COMPOSITE
      53       1      64      93      84      84
         -3.5000
         2    1.5000   -66.408                   2    1.5000  -126.408          
         3    1.0000   -96.408                   2    1.5000   -66.408          
         2    1.5000  -126.408          
*ELEMENT_SHELL_OFFSET_COMPOSITE
      54       1      65      83      94      94
         -3.5000
         2    1.5000   173.350                   2    1.5000   113.350          
         3    1.0000   143.350                   2    1.5000   173.350          
         2    1.5000   113.350          
*ELEMENT_SHELL_OFFSET_COMPOSITE
      55       1      52      60      95      95
         -3.5000
         2    1.5000   210.000                   2    1.5000   150.000          
         3    1.0000   180.000                   2    1.5000   210.000          
         2    1.5000   150.000          
*ELEMENT_SHELL_OFFSET_COMPOSITE
      56       1      60      68      95      95
         -3.5000
         2    1.5000   145.154                   2    1.5000    85.154          
         3    1.0000   115.154                   2    1.5000   145.154          
         2    1.5000    85.154          
*ELEMENT_SHELL_OFFSET_COMPOSITE
      70       1      22      46      26      26
         -3.5000
         2    1.5000   210.000                   2    1.5000   150.000          
         3    1.0000   180.000                   2    1.5000   210.000          
         2    1.5000   150.000          
*ELEMENT_SHELL_OFFSET_COMPOSITE
      72       1       2      23      21      21
         -3.5000
         2    1.5000   -60.000                   2    1.5000  -120.000          
         3    1.0000   -90.000                   2    1.5000   -60.000          
         2    1.5000  -120.000          
*ELEMENT_SHELL_OFFSET_COMPOSITE
      75       1      25      26      64      64
         -3.5000
         2    1.5000   -60.000                   2    1.5000  -120.000          
         3    1.0000   -90.000                   2    1.5000   -60.000          
         2    1.5000  -120.000          
*ELEMENT_SHELL_OFFSET_COMPOSITE
      76       1      23      24      65      65
         -3.5000
         2    1.5000   -60.000                   2    1.5000  -120.000          
         3    1.0000   -90.000                   2    1.5000   -60.000          
         2    1.5000  -120.000          
*ELEMENT_SHELL_OFFSET_COMPOSITE
      77       1      42      66      43      43
         -3.5000
         2    1.5000    98.199                   2    1.5000    38.199          
         3    1.0000    68.199                   2    1.5000    98.199          
         2    1.5000    38.199          
*ELEMENT_SHELL_OFFSET_COMPOSITE
      78       1      17      18      67      67
         -3.5000
         2    1.5000    30.000                   2    1.5000   -30.000          
         3    1.0000     0.000                   2    1.5000    30.000          
         2    1.5000   -30.000          
*ELEMENT_SHELL_OFFSET_COMPOSITE
      80       1      40      69      41      41
         -3.5000
         2    1.5000    96.599                   2    1.5000    36.599          
         3    1.0000    66.599                   2    1.5000    96.599          
         2    1.5000    36.599          
*ELEMENT_SHELL_OFFSET_COMPOSITE
      96       1      16      17      82      82
         -3.5000
         2    1.5000    30.000                   2    1.5000   -30.000          
         3    1.0000     0.000                   2    1.5000    30.000          
         2    1.5000   -30.000          
*ELEMENT_SHELL_OFFSET_COMPOSITE
      97       1      17      67      82      82
         -3.5000
         2    1.5000   -38.199                   2    1.5000   -98.199          
         3    1.0000   -68.199                   2    1.5000   -38.199          
         2    1.5000   -98.199          
*ELEMENT_SHELL_OFFSET_COMPOSITE
      98       1      19      20      83      83
         -3.5000
         2    1.5000    30.000                   2    1.5000   -30.000          
         3    1.0000     0.000                   2    1.5000    30.000          
         2    1.5000   -30.000          
*ELEMENT_SHELL_OFFSET_COMPOSITE
      99       1      44      84      45      45
         -3.5000
         2    1.5000    83.368                   2    1.5000    23.368          
         3    1.0000    53.368                   2    1.5000    83.368          
         2    1.5000    23.368          
*ELEMENT_SHELL_OFFSET_COMPOSITE
     100       1      44      85      84      84
         -3.5000
         2    1.5000   136.981                   2    1.5000    76.981          
         3    1.0000   106.981                   2    1.5000   136.981          
         2    1.5000    76.981          
*ELEMENT_SHELL_OFFSET_COMPOSITE
     101       1      43      66      85      85
         -3.5000
         2    1.5000   141.801                   2    1.5000    81.801          
         3    1.0000   111.801                   2    1.5000   141.801          
         2    1.5000    81.801          
*ELEMENT_SHELL_OFFSET_COMPOSITE
     102       1      43      85      44      44
         -3.5000
         2    1.5000    92.633                   2    1.5000    32.633          
         3    1.0000    62.633                   2    1.5000    92.633          
         2    1.5000    32.633          
*ELEMENT_SHELL_OFFSET_COMPOSITE
     103       1      19      83      86      86
         -3.5000
         2    1.5000   -23.400                   2    1.5000   -83.400          
         3    1.0000   -53.400                   2    1.5000   -23.400          
         2    1.5000   -83.400          
*ELEMENT_SHELL_OFFSET_COMPOSITE
     104       1      18      19      86      86
         -3.5000
         2    1.5000    30.000                   2    1.5000   -30.000          
         3    1.0000     0.000                   2    1.5000    30.000          
         2    1.5000   -30.000          
*ELEMENT_SHELL_OFFSET_COMPOSITE
     105       1      18      86      67      67
         -3.5000
         2    1.5000   -32.579                   2    1.5000   -92.579          
         3    1.0000   -62.579                   2    1.5000   -32.579          
         2    1.5000   -92.579          
*ELEMENT_SHELL_OFFSET_COMPOSITE
     115       1      42      90      66      66
         -3.5000
         2    1.5000   145.792                   2    1.5000    85.792          
         3    1.0000   115.792                   2    1.5000   145.792          
         2    1.5000    85.792          
*ELEMENT_SHELL_OFFSET_COMPOSITE
     116       1      41      69      90      90
         -3.5000
         2    1.5000   138.695                   2    1.5000    78.695          
         3    1.0000   108.695                   2    1.5000   138.695          
         2    1.5000    78.695          
*ELEMENT_SHELL_OFFSET_COMPOSITE
     117       1      41      90      42      42
         -3.5000
         2    1.5000    93.093                   2    1.5000    33.093          
         3    1.0000    63.093                   2    1.5000    93.093          
         2    1.5000    33.093          
*ELEMENT_SHELL_OFFSET_COMPOSITE
     126       1      45      93      46      46
         -3.5000
         2    1.5000    77.235                   2    1.5000    17.235          
         3    1.0000    47.235                   2    1.5000    77.235          
         2    1.5000    17.235          
*ELEMENT_SHELL_OFFSET_COMPOSITE
     127       1      45      84      93      93
         -3.5000
         2    1.5000   132.272                   2    1.5000    72.272          
         3    1.0000   102.272                   2    1.5000   132.272          
         2    1.5000    72.272          
*ELEMENT_SHELL_OFFSET_COMPOSITE
     128       1      26      46      93      93
         -3.5000
         2    1.5000  -105.000                   2    1.5000  -165.000          
         3    1.0000  -135.000                   2    1.5000  -105.000          
         2    1.5000  -165.000          
*ELEMENT_SHELL_OFFSET_COMPOSITE
     129       1      26      93      64      64
         -3.5000
         2    1.5000  -139.558                   2    1.5000  -199.558          
         3    1.0000  -169.558                   2    1.5000  -139.558          
         2    1.5000  -199.558          
*ELEMENT_SHELL_OFFSET_COMPOSITE
     130       1      20      21      94      94
         -3.5000
         2    1.5000    30.000                   2    1.5000   -30.000          
         3    1.0000     0.000                   2    1.5000    30.000          
         2    1.5000   -30.000          
*ELEMENT_SHELL_OFFSET_COMPOSITE
     131       1      20      94      83      83
         -3.5000
         2    1.5000   -17.488                   2    1.5000   -77.488          
         3    1.0000   -47.488                   2    1.5000   -17.488          
         2    1.5000   -77.488          
*ELEMENT_SHELL_OFFSET_COMPOSITE
     132       1      21      23      94      94
         -3.5000
         2    1.5000   -15.000                   2    1.5000   -75.000          
         3    1.0000   -45.000                   2    1.5000   -15.000          
         2    1.5000   -75.000          
*ELEMENT_SHELL_OFFSET_COMPOSITE
     133       1      23      65      94      94
         -3.5000
         2    1.5000  -107.419                   2    1.5000  -167.419          
         3    1.0000  -137.419                   2    1.5000  -107.419          
         2    1.5000  -167.419          
*ELEMENT_SHELL_OFFSET_COMPOSITE
     134       1      15      16      95      95
         -3.5000
         2    1.5000    30.000                   2    1.5000   -30.000          
         3    1.0000     0.000                   2    1.5000    30.000          
         2    1.5000   -30.000          
*ELEMENT_SHELL_OFFSET_COMPOSITE
     135       1      16      82      95      95
         -3.5000
         2    1.5000   -34.593                   2    1.5000   -94.593          
         3    1.0000   -64.593                   2    1.5000   -34.593          
         2    1.5000   -94.593          
*ELEMENT_SHELL_OFFSET_COMPOSITE
     136       1      15      95      68      68
         -3.5000
         2    1.5000   -38.516                   2    1.5000   -98.516          
         3    1.0000   -68.516                   2    1.5000   -38.516          
         2    1.5000   -98.516          
*ELEMENT_SHELL_OFFSET_COMPOSITE
     155       1      24      25      65      65
         -3.5000
         2    1.5000   -60.000                   2    1.5000  -120.000          
         3    1.0000   -90.000                   2    1.5000   -60.000          
         2    1.5000  -120.000          
*ELEMENT_SHELL_OFFSET_COMPOSITE
     156       1      25      64      65      65
         -3.5000
         2    1.5000  -137.274                   2    1.5000  -197.274          
         3    1.0000  -167.274                   2    1.5000  -137.274          
         2    1.5000  -197.274          
*ELEMENT_SHELL_OFFSET_COMPOSITE
       3       1      56      77      62      62
         -3.5000
         2    1.5000   -55.889                   2    1.5000  -115.889          
         3    1.0000   -85.889                   2    1.5000   -55.889          
         2    1.5000  -115.889          
*ELEMENT_SHELL_OFFSET_COMPOSITE
       4       1      27      47      28      28
         -3.5000
         2    1.5000   120.000                   2    1.5000    60.000          
         3    1.0000    90.000                   2    1.5000   120.000          
         2    1.5000    60.000          
*ELEMENT_SHELL_OFFSET_COMPOSITE
       5       1      55      75      57      57
         -3.5000
         2    1.5000   -93.302                   2    1.5000  -153.302          
         3    1.0000  -123.302                   2    1.5000   -93.302          
         2    1.5000  -153.302          
*ELEMENT_SHELL_OFFSET_COMPOSITE
       6       1      56      63      76      76
         -3.5000
         2    1.5000   185.741                   2    1.5000   125.741          
         3    1.0000   155.741                   2    1.5000   185.741          
         2    1.5000   125.741          
*ELEMENT_SHELL_OFFSET_COMPOSITE
       7       1      58      98     100     100
         -3.5000
         2    1.5000  -112.133                   2    1.5000  -172.133          
         3    1.0000  -142.133                   2    1.5000  -112.133          
         2    1.5000  -172.133          
*ELEMENT_SHELL_OFFSET_COMPOSITE
       8       1      75     103     102     102
         -3.5000
         2    1.5000  -128.841                   2    1.5000  -188.841          
         3    1.0000  -158.841                   2    1.5000  -128.841          
         2    1.5000  -188.841          
*ELEMENT_SHELL_OFFSET_COMPOSITE
       9       1      54      73      58      58
         -3.5000
         2    1.5000   -98.660                   2    1.5000  -158.660          
         3    1.0000  -128.660                   2    1.5000   -98.660          
         2    1.5000  -158.660          
*ELEMENT_SHELL_OFFSET_COMPOSITE
      10       1      74     105     104     104
         -3.5000
         2    1.5000  -120.945                   2    1.5000  -180.945          
         3    1.0000  -150.945                   2    1.5000  -120.945          
         2    1.5000  -180.945          
*ELEMENT_SHELL_OFFSET_COMPOSITE
      11       1      56     102      77      77
         -3.5000
         2    1.5000     1.396                   2    1.5000   -58.604          
         3    1.0000   -28.604                   2    1.5000     1.396          
         2    1.5000   -58.604          
*ELEMENT_SHELL_OFFSET_COMPOSITE
      12       1      55      57      74      74
         -3.5000
         2    1.5000   210.000                   2    1.5000   150.000          
         3    1.0000   180.000                   2    1.5000   210.000          
         2    1.5000   150.000          
*ELEMENT_SHELL_OFFSET_COMPOSITE
      20       1      56      62      63      63
         -3.5000
         2    1.5000  -116.422                   2    1.5000  -176.422          
         3    1.0000  -146.422                   2    1.5000  -116.422          
         2    1.5000  -176.422          
*ELEMENT_SHELL_OFFSET_COMPOSITE
      25       1      63      91      76      76
         -3.5000
         2    1.5000   107.090                   2    1.5000    47.090          
         3    1.0000    77.090                   2    1.5000   107.090          
         2    1.5000    47.090          
*ELEMENT_SHELL_OFFSET_COMPOSITE
      27       1      73      99      98      98
         -3.5000
         2    1.5000  -124.659                   2    1.5000  -184.659          
         3    1.0000  -154.659                   2    1.5000  -124.659          
         2    1.5000  -184.659          
*ELEMENT_SHELL_OFFSET_COMPOSITE
      28       1      78     101     100     100
         -3.5000
         2    1.5000    46.999                   2    1.5000   -13.001          
         3    1.0000    16.999                   2    1.5000    46.999          
         2    1.5000   -13.001          
*ELEMENT_SHELL_OFFSET_COMPOSITE
      29       1      54      58      72      72
         -3.5000
         2    1.5000   210.000                   2    1.5000   150.000          
         3    1.0000   180.000                   2    1.5000   210.000          
         2    1.5000   150.000          
*ELEMENT_SHELL_OFFSET_COMPOSITE
      30       1      58     100      72      72
         -3.5000
         2    1.5000   170.978                   2    1.5000   110.978          
         3    1.0000   140.978                   2    1.5000   170.978          
         2    1.5000   110.978          
*ELEMENT_SHELL_OFFSET_COMPOSITE
      31       1      57     105      74      74
         -3.5000
         2    1.5000   172.133                   2    1.5000   112.133          
         3    1.0000   142.133                   2    1.5000   172.133          
         2    1.5000   112.133          
*ELEMENT_SHELL_OFFSET_COMPOSITE
      33       1      57     102     105     105
         -3.5000
         2    1.5000  -112.133                   2    1.5000  -172.133          
         3    1.0000  -142.133                   2    1.5000  -112.133          
         2    1.5000  -172.133          
*ELEMENT_SHELL_OFFSET_COMPOSITE
      36       1      55      98      79      79
         -3.5000
         2    1.5000    -0.671                   2    1.5000   -60.671          
         3    1.0000   -30.671                   2    1.5000    -0.671          
         2    1.5000   -60.671          
*ELEMENT_SHELL_OFFSET_COMPOSITE
      40       1      55      74      78      78
         -3.5000
         2    1.5000   153.302                   2    1.5000    93.302          
         3    1.0000   123.302                   2    1.5000   153.302          
         2    1.5000    93.302          
*ELEMENT_SHELL_OFFSET_COMPOSITE
      41       1      55      79      75      75
         -3.5000
         2    1.5000   -46.414                   2    1.5000  -106.414          
         3    1.0000   -76.414                   2    1.5000   -46.414          
         2    1.5000  -106.414          
*ELEMENT_SHELL_OFFSET_COMPOSITE
      52       1      62      77      92      92
         -3.5000
         2    1.5000     0.935                   2    1.5000   -59.065          
         3    1.0000   -29.065                   2    1.5000     0.935          
         2    1.5000   -59.065          
*ELEMENT_SHELL_OFFSET_COMPOSITE
      60       1      55     100      98      98
         -3.5000
         2    1.5000    60.204                   2    1.5000     0.204          
         3    1.0000    30.204                   2    1.5000    60.204          
         2    1.5000     0.204          
*ELEMENT_SHELL_OFFSET_COMPOSITE
      61       1      58      73      98      98
         -3.5000
         2    1.5000   -45.589                   2    1.5000  -105.589          
         3    1.0000   -75.589                   2    1.5000   -45.589          
         2    1.5000  -105.589          
*ELEMENT_SHELL_OFFSET_COMPOSITE
      62       1      79      98      99      99
         -3.5000
         2    1.5000    77.314                   2    1.5000    17.314          
         3    1.0000    47.314                   2    1.5000    77.314          
         2    1.5000    17.314          
*ELEMENT_SHELL_OFFSET_COMPOSITE
      63       1      55      78     100     100
         -3.5000
         2    1.5000   106.414                   2    1.5000    46.414          
         3    1.0000    76.414                   2    1.5000   106.414          
         2    1.5000    46.414          
*ELEMENT_SHELL_OFFSET_COMPOSITE
      64       1      72     100     101     101
         -3.5000
         2    1.5000  -118.620                   2    1.5000  -178.620          
         3    1.0000  -148.620                   2    1.5000  -118.620          
         2    1.5000  -178.620          
*ELEMENT_SHELL_OFFSET_COMPOSITE
      65       1      56     105     102     102
         -3.5000
         2    1.5000    62.223                   2    1.5000     2.223          
         3    1.0000    32.223                   2    1.5000    62.223          
         2    1.5000     2.223          
*ELEMENT_SHELL_OFFSET_COMPOSITE
      66       1      57      75     102     102
         -3.5000
         2    1.5000   -45.590                   2    1.5000  -105.590          
         3    1.0000   -75.590                   2    1.5000   -45.590          
         2    1.5000  -105.590          
*ELEMENT_SHELL_OFFSET_COMPOSITE
      67       1      77     102     103     103
         -3.5000
         2    1.5000    68.511                   2    1.5000     8.511          
         3    1.0000    38.511                   2    1.5000    68.511          
         2    1.5000     8.511          
*ELEMENT_SHELL_OFFSET_COMPOSITE
      68       1      56      76     105     105
         -3.5000
         2    1.5000   118.336                   2    1.5000    58.336          
         3    1.0000    88.336                   2    1.5000   118.336          
         2    1.5000    58.336          
*ELEMENT_SHELL_OFFSET_COMPOSITE
      69       1      76     104     105     105
         -3.5000
         2    1.5000    45.100                   2    1.5000   -14.900          
         3    1.0000    15.100                   2    1.5000    45.100          
         2    1.5000   -14.900          
*ELEMENT_SHELL_OFFSET_COMPOSITE
      71       1       1       3      50      50
         -3.5000
         2    1.5000    30.000                   2    1.5000   -30.000          
         3    1.0000     0.000                   2    1.5000    30.000          
         2    1.5000   -30.000          
*ELEMENT_SHELL_OFFSET_COMPOSITE
      73       1      47      48      62      62
         -3.5000
         2    1.5000   120.000                   2    1.5000    60.000          
         3    1.0000    90.000                   2    1.5000   120.000          
         2    1.5000    60.000          
*ELEMENT_SHELL_OFFSET_COMPOSITE
      74       1      49      50      63      63
         -3.5000
         2    1.5000   120.000                   2    1.5000    60.000          
         3    1.0000    90.000                   2    1.5000   120.000          
         2    1.5000    60.000          
*ELEMENT_SHELL_OFFSET_COMPOSITE
      83       1       9      10      72      72
         -3.5000
         2    1.5000    30.000                   2    1.5000   -30.000          
         3    1.0000     0.000                   2    1.5000    30.000          
         2    1.5000   -30.000          
*ELEMENT_SHELL_OFFSET_COMPOSITE
      84       1      34      73      35      35
         -3.5000
         2    1.5000    98.199                   2    1.5000    38.199          
         3    1.0000    68.199                   2    1.5000    98.199          
         2    1.5000    38.199          
*ELEMENT_SHELL_OFFSET_COMPOSITE
      85       1       6       7      74      74
         -3.5000
         2    1.5000    30.000                   2    1.5000   -30.000          
         3    1.0000     0.000                   2    1.5000    30.000          
         2    1.5000   -30.000          
*ELEMENT_SHELL_OFFSET_COMPOSITE
      86       1      31      75      32      32
         -3.5000
         2    1.5000    98.199                   2    1.5000    38.199          
         3    1.0000    68.199                   2    1.5000    98.199          
         2    1.5000    38.199          
*ELEMENT_SHELL_OFFSET_COMPOSITE
      87       1       4       5      76      76
         -3.5000
         2    1.5000    30.000                   2    1.5000   -30.000          
         3    1.0000     0.000                   2    1.5000    30.000          
         2    1.5000   -30.000          
*ELEMENT_SHELL_OFFSET_COMPOSITE
      88       1      29      77      30      30
         -3.5000
         2    1.5000    99.721                   2    1.5000    39.721          
         3    1.0000    69.721                   2    1.5000    99.721          
         2    1.5000    39.721          
*ELEMENT_SHELL_OFFSET_COMPOSITE
      89       1       7       8      78      78
         -3.5000
         2    1.5000    30.000                   2    1.5000   -30.000          
         3    1.0000     0.000                   2    1.5000    30.000          
         2    1.5000   -30.000          
*ELEMENT_SHELL_OFFSET_COMPOSITE
      90       1       7      78      74      74
         -3.5000
         2    1.5000   -29.036                   2    1.5000   -89.036          
         3    1.0000   -59.036                   2    1.5000   -29.036          
         2    1.5000   -89.036          
*ELEMENT_SHELL_OFFSET_COMPOSITE
      91       1      32      75      79      79
         -3.5000
         2    1.5000   141.801                   2    1.5000    81.801          
         3    1.0000   111.801                   2    1.5000   141.801          
         2    1.5000    81.801          
*ELEMENT_SHELL_OFFSET_COMPOSITE
      92       1      32      79      33      33
         -3.5000
         2    1.5000    89.036                   2    1.5000    29.036          
         3    1.0000    59.036                   2    1.5000    89.036          
         2    1.5000    29.036          
*ELEMENT_SHELL_OFFSET_COMPOSITE
      94       1      10      80      72      72
         -3.5000
         2    1.5000   -36.098                   2    1.5000   -96.098          
         3    1.0000   -66.098                   2    1.5000   -36.098          
         2    1.5000   -96.098          
*ELEMENT_SHELL_OFFSET_COMPOSITE
     118       1       3       4      91      91
         -3.5000
         2    1.5000    30.000                   2    1.5000   -30.000          
         3    1.0000     0.000                   2    1.5000    30.000          
         2    1.5000   -30.000          
*ELEMENT_SHELL_OFFSET_COMPOSITE
     119       1       4      76      91      91
         -3.5000
         2    1.5000   -43.005                   2    1.5000  -103.005          
         3    1.0000   -73.005                   2    1.5000   -43.005          
         2    1.5000  -103.005          
*ELEMENT_SHELL_OFFSET_COMPOSITE
     120       1       3      91      50      50
         -3.5000
         2    1.5000   -40.501                   2    1.5000  -100.501          
         3    1.0000   -70.501                   2    1.5000   -40.501          
         2    1.5000  -100.501          
*ELEMENT_SHELL_OFFSET_COMPOSITE
     121       1      50      91      63      63
         -3.5000
         2    1.5000    37.787                   2    1.5000   -22.213          
         3    1.0000     7.787                   2    1.5000    37.787          
         2    1.5000   -22.213          
*ELEMENT_SHELL_OFFSET_COMPOSITE
     122       1      28      92      29      29
         -3.5000
         2    1.5000    90.316                   2    1.5000    30.316          
         3    1.0000    60.316                   2    1.5000    90.316          
         2    1.5000    30.316          
*ELEMENT_SHELL_OFFSET_COMPOSITE
     123       1      29      92      77      77
         -3.5000
         2    1.5000   153.109                   2    1.5000    93.109          
         3    1.0000   123.109                   2    1.5000   153.109          
         2    1.5000    93.109          
*ELEMENT_SHELL_OFFSET_COMPOSITE
     124       1      28      47      92      92
         -3.5000
         2    1.5000   165.000                   2    1.5000   105.000          
         3    1.0000   135.000                   2    1.5000   165.000          
         2    1.5000   105.000          
*ELEMENT_SHELL_OFFSET_COMPOSITE
     125       1      47      62      92      92
         -3.5000
         2    1.5000    60.964                   2    1.5000     0.964          
         3    1.0000    30.964                   2    1.5000    60.964          
         2    1.5000     0.964          
*ELEMENT_SHELL_OFFSET_COMPOSITE
     143       1      33      99      34      34
         -3.5000
         2    1.5000    89.036                   2    1.5000    29.036          
         3    1.0000    59.036                   2    1.5000    89.036          
         2    1.5000    29.036          
*ELEMENT_SHELL_OFFSET_COMPOSITE
     144       1      33      79      99      99
         -3.5000
         2    1.5000   137.202                   2    1.5000    77.202          
         3    1.0000   107.202                   2    1.5000   137.202          
         2    1.5000    77.202          
*ELEMENT_SHELL_OFFSET_COMPOSITE
     145       1      34      99      73      73
         -3.5000
         2    1.5000   156.001                   2    1.5000    96.001          
         3    1.0000   126.001                   2    1.5000   156.001          
         2    1.5000    96.001          
*ELEMENT_SHELL_OFFSET_COMPOSITE
     146       1       8     101      78      78
         -3.5000
         2    1.5000   -29.447                   2    1.5000   -89.447          
         3    1.0000   -59.447                   2    1.5000   -29.447          
         2    1.5000   -89.447          
*ELEMENT_SHELL_OFFSET_COMPOSITE
     147       1       8       9     101     101
         -3.5000
         2    1.5000    30.000                   2    1.5000   -30.000          
         3    1.0000     0.000                   2    1.5000    30.000          
         2    1.5000   -30.000          
*ELEMENT_SHELL_OFFSET_COMPOSITE
     148       1       9      72     101     101
         -3.5000
         2    1.5000   -41.092                   2    1.5000  -101.092          
         3    1.0000   -71.092                   2    1.5000   -41.092          
         2    1.5000  -101.092          
*ELEMENT_SHELL_OFFSET_COMPOSITE
     149       1      30     103      31      31
         -3.5000
         2    1.5000    91.642                   2    1.5000    31.642          
         3    1.0000    61.642                   2    1.5000    91.642          
         2    1.5000    31.642          
*ELEMENT_SHELL_OFFSET_COMPOSITE
     150       1      30      77     103     103
         -3.5000
         2    1.5000   148.131                   2    1.5000    88.131          
         3    1.0000   118.131                   2    1.5000   148.131          
         2    1.5000    88.131          
*ELEMENT_SHELL_OFFSET_COMPOSITE
     151       1      31     103      75      75
         -3.5000
         2    1.5000   152.701                   2    1.5000    92.701          
         3    1.0000   122.701                   2    1.5000   152.701          
         2    1.5000    92.701          
*ELEMENT_SHELL_OFFSET_COMPOSITE
     152       1       5     104      76      76
         -3.5000
         2    1.5000   -32.119                   2    1.5000   -92.119          
         3    1.0000   -62.119                   2    1.5000   -32.119          
         2    1.5000   -92.119          
*ELEMENT_SHELL_OFFSET_COMPOSITE
     153       1       5       6     104     104
         -3.5000
         2    1.5000    30.000                   2    1.5000   -30.000          
         3    1.0000     0.000                   2    1.5000    30.000          
         2    1.5000   -30.000          
*ELEMENT_SHELL_OFFSET_COMPOSITE
     154       1       6      74     104     104
         -3.5000
         2    1.5000   -38.199                   2    1.5000   -98.199          
         3    1.0000   -68.199                   2    1.5000   -38.199          
         2    1.5000   -98.199          
*ELEMENT_SHELL_OFFSET_COMPOSITE
     157       1      48      63      62      62
         -3.5000
         2    1.5000    75.094                   2    1.5000    15.094          
         3    1.0000    45.094                   2    1.5000    75.094          
         2    1.5000    15.094          
*ELEMENT_SHELL_OFFSET_COMPOSITE
     158       1      48      49      63      63
         -3.5000
         2    1.5000   120.000                   2    1.5000    60.000          
         3    1.0000    90.000                   2    1.5000   120.000          
         2    1.5000    60.000          
*ELEMENT_SHELL_OFFSET_COMPOSITE
      15       1      53      81      87      87
         -4.2500
         2    1.5000   -89.792                   2    1.5000   -59.792          
         2    1.5000  -119.792                   3    1.0000   -89.792          
         2    1.5000   -59.792                   2    1.5000  -119.792          
*ELEMENT_SHELL_OFFSET_COMPOSITE
      16       1      54      59      70      70
         -4.2500
         2    1.5000    -2.009                   2    1.5000    27.991          
         2    1.5000   -32.009                   3    1.0000    -2.009          
         2    1.5000    27.991                   2    1.5000   -32.009          
*ELEMENT_SHELL_OFFSET_COMPOSITE
      18       1      53      59      71      71
         -4.2500
         2    1.5000  -177.951                   2    1.5000  -147.951          
         2    1.5000  -207.951                   3    1.0000  -177.951          
         2    1.5000  -147.951                   2    1.5000  -207.951          
*ELEMENT_SHELL_OFFSET_COMPOSITE
      19       1      53      68      60      60
         -4.2500
         2    1.5000    52.148                   2    1.5000    82.148          
         2    1.5000    22.148                   3    1.0000    52.148          
         2    1.5000    82.148                   2    1.5000    22.148          
*ELEMENT_SHELL_OFFSET_COMPOSITE
      23       1      53      96      81      81
         -4.2500
         2    1.5000   -52.205                   2    1.5000   -22.205          
         2    1.5000   -82.205                   3    1.0000   -52.205          
         2    1.5000   -22.205                   2    1.5000   -82.205          
*ELEMENT_SHELL_OFFSET_COMPOSITE
      24       1      53      87      59      59
         -4.2500
         2    1.5000  -125.260                   2    1.5000   -95.260          
         2    1.5000  -155.260                   3    1.0000  -125.260          
         2    1.5000   -95.260                   2    1.5000  -155.260          
*ELEMENT_SHELL_OFFSET_COMPOSITE
      32       1      59      97      71      71
         -4.2500
         2    1.5000   115.612                   2    1.5000   145.612          
         2    1.5000    85.612                   3    1.0000   115.612          
         2    1.5000   145.612                   2    1.5000    85.612          
*ELEMENT_SHELL_OFFSET_COMPOSITE
      34       1      53      71      89      89
         -4.2500
         2    1.5000   128.271                   2    1.5000   158.271          
         2    1.5000    98.271                   3    1.0000   128.271          
         2    1.5000   158.271                   2    1.5000    98.271          
*ELEMENT_SHELL_OFFSET_COMPOSITE
      37       1      54      97      59      59
         -4.2500
         2    1.5000    52.414                   2    1.5000    82.414          
         2    1.5000    22.414                   3    1.0000    52.414          
         2    1.5000    82.414                   2    1.5000    22.414          
*ELEMENT_SHELL_OFFSET_COMPOSITE
      42       1      54      72      80      80
         -4.2500
         2    1.5000   130.556                   2    1.5000   160.556          
         2    1.5000   100.556                   3    1.0000   130.556          
         2    1.5000   160.556                   2    1.5000   100.556          
*ELEMENT_SHELL_OFFSET_COMPOSITE
      43       1      54      70      88      88
         -4.2500
         2    1.5000   -51.340                   2    1.5000   -21.340          
         2    1.5000   -81.340                   3    1.0000   -51.340          
         2    1.5000   -21.340                   2    1.5000   -81.340          
*ELEMENT_SHELL_OFFSET_COMPOSITE
      48       1      59      87      70      70
         -4.2500
         2    1.5000   -65.221                   2    1.5000   -35.221          
         2    1.5000   -95.221                   3    1.0000   -65.221          
         2    1.5000   -35.221                   2    1.5000   -95.221          
*ELEMENT_SHELL_OFFSET_COMPOSITE
      49       1      54      88      73      73
         -4.2500
         2    1.5000   -90.000                   2    1.5000   -60.000          
         2    1.5000  -120.000                   3    1.0000   -90.000          
         2    1.5000   -60.000                   2    1.5000  -120.000          
*ELEMENT_SHELL_OFFSET_COMPOSITE
      50       1      53      89      68      68
         -4.2500
         2    1.5000    90.010                   2    1.5000   120.010          
         2    1.5000    60.010                   3    1.0000    90.010          
         2    1.5000   120.010                   2    1.5000    60.010          
*ELEMENT_SHELL_OFFSET_COMPOSITE
      57       1      53      60      96      96
         -4.2500
         2    1.5000     0.000                   2    1.5000    30.000          
         2    1.5000   -30.000                   3    1.0000     0.000          
         2    1.5000    30.000                   2    1.5000   -30.000          
*ELEMENT_SHELL_OFFSET_COMPOSITE
      58       1      60      69      96      96
         -4.2500
         2    1.5000   -64.995                   2    1.5000   -34.995          
         2    1.5000   -94.995                   3    1.0000   -64.995          
         2    1.5000   -34.995                   2    1.5000   -94.995          
*ELEMENT_SHELL_OFFSET_COMPOSITE
      59       1      54      80      97      97
         -4.2500
         2    1.5000    91.364                   2    1.5000   121.364          
         2    1.5000    61.364                   3    1.0000    91.364          
         2    1.5000   121.364                   2    1.5000    61.364          
*ELEMENT_SHELL_OFFSET_COMPOSITE
      79       1      14      15      68      68
         -4.2500
         2    1.5000     0.000                   2    1.5000    30.000          
         2    1.5000   -30.000                   3    1.0000     0.000          
         2    1.5000    30.000                   2    1.5000   -30.000          
*ELEMENT_SHELL_OFFSET_COMPOSITE
      81       1      36      70      37      37
         -4.2500
         2    1.5000    68.199                   2    1.5000    98.199          
         2    1.5000    38.199                   3    1.0000    68.199          
         2    1.5000    98.199                   2    1.5000    38.199          
*ELEMENT_SHELL_OFFSET_COMPOSITE
      82       1      12      13      71      71
         -4.2500
         2    1.5000     0.000                   2    1.5000    30.000          
         2    1.5000   -30.000                   3    1.0000     0.000          
         2    1.5000    30.000                   2    1.5000   -30.000          
*ELEMENT_SHELL_OFFSET_COMPOSITE
      93       1      10      11      80      80
         -4.2500
         2    1.5000     0.000                   2    1.5000    30.000          
         2    1.5000   -30.000                   3    1.0000     0.000          
         2    1.5000    30.000                   2    1.5000   -30.000          
*ELEMENT_SHELL_OFFSET_COMPOSITE
      95       1      38      81      39      39
         -4.2500
         2    1.5000    64.347                   2    1.5000    94.347          
         2    1.5000    34.347                   3    1.0000    64.347          
         2    1.5000    94.347                   2    1.5000    34.347          
*ELEMENT_SHELL_OFFSET_COMPOSITE
     106       1      38      87      81      81
         -4.2500
         2    1.5000   108.886                   2    1.5000   138.886          
         2    1.5000    78.886                   3    1.0000   108.886          
         2    1.5000   138.886                   2    1.5000    78.886          
*ELEMENT_SHELL_OFFSET_COMPOSITE
     107       1      37      70      87      87
         -4.2500
         2    1.5000   111.801                   2    1.5000   141.801          
         2    1.5000    81.801                   3    1.0000   111.801          
         2    1.5000   141.801                   2    1.5000    81.801          
*ELEMENT_SHELL_OFFSET_COMPOSITE
     108       1      37      87      38      38
         -4.2500
         2    1.5000    64.098                   2    1.5000    94.098          
         2    1.5000    34.098                   3    1.0000    64.098          
         2    1.5000    94.098                   2    1.5000    34.098          
*ELEMENT_SHELL_OFFSET_COMPOSITE
     109       1      36      88      70      70
         -4.2500
         2    1.5000   115.011                   2    1.5000   145.011          
         2    1.5000    85.011                   3    1.0000   115.011          
         2    1.5000   145.011                   2    1.5000    85.011          
*ELEMENT_SHELL_OFFSET_COMPOSITE
     110       1      35      73      88      88
         -4.2500
         2    1.5000   111.801                   2    1.5000   141.801          
         2    1.5000    81.801                   3    1.0000   111.801          
         2    1.5000   141.801                   2    1.5000    81.801          
*ELEMENT_SHELL_OFFSET_COMPOSITE
     111       1      35      88      36      36
         -4.2500
         2    1.5000    64.989                   2    1.5000    94.989          
         2    1.5000    34.989                   3    1.0000    64.989          
         2    1.5000    94.989                   2    1.5000    34.989          
*ELEMENT_SHELL_OFFSET_COMPOSITE
     112       1      13      89      71      71
         -4.2500
         2    1.5000   -63.943                   2    1.5000   -33.943          
         2    1.5000   -93.943                   3    1.0000   -63.943          
         2    1.5000   -33.943                   2    1.5000   -93.943          
*ELEMENT_SHELL_OFFSET_COMPOSITE
     113       1      13      14      89      89
         -4.2500
         2    1.5000     0.000                   2    1.5000    30.000          
         2    1.5000   -30.000                   3    1.0000     0.000          
         2    1.5000    30.000                   2    1.5000   -30.000          
*ELEMENT_SHELL_OFFSET_COMPOSITE
     114       1      14      68      89      89
         -4.2500
         2    1.5000   -71.456                   2    1.5000   -41.456          
         2    1.5000  -101.456                   3    1.0000   -71.456          
         2    1.5000   -41.456                   2    1.5000  -101.456          
*ELEMENT_SHELL_OFFSET_COMPOSITE
     137       1      39      96      40      40
         -4.2500
         2    1.5000    72.303                   2    1.5000   102.303          
         2    1.5000    42.303                   3    1.0000    72.303          
         2    1.5000   102.303                   2    1.5000    42.303          
*ELEMENT_SHELL_OFFSET_COMPOSITE
     138       1      39      81      96      96
         -4.2500
         2    1.5000   115.186                   2    1.5000   145.186          
         2    1.5000    85.186                   3    1.0000   115.186          
         2    1.5000   145.186                   2    1.5000    85.186          
*ELEMENT_SHELL_OFFSET_COMPOSITE
     139       1      40      96      69      69
         -4.2500
         2    1.5000   113.830                   2    1.5000   143.830          
         2    1.5000    83.830                   3    1.0000   113.830          
         2    1.5000   143.830                   2    1.5000    83.830          
*ELEMENT_SHELL_OFFSET_COMPOSITE
     140       1      11      97      80      80
         -4.2500
         2    1.5000   -72.281                   2    1.5000   -42.281          
         2    1.5000  -102.281                   3    1.0000   -72.281          
         2    1.5000   -42.281                   2    1.5000  -102.281          
*ELEMENT_SHELL_OFFSET_COMPOSITE
     141       1      11      12      97      97
         -4.2500
         2    1.5000     0.000                   2    1.5000    30.000          
         2    1.5000   -30.000                   3    1.0000     0.000          
         2    1.5000    30.000                   2    1.5000   -30.000          
*ELEMENT_SHELL_OFFSET_COMPOSITE
     142       1      12      71      97      97
         -4.2500
         2    1.5000   -66.770                   2    1.5000   -36.770          
         2    1.5000   -96.770                   3    1.0000   -66.770          
         2    1.5000   -36.770                   2    1.5000   -96.770          
*DEFINE_COORDINATE_SYSTEM
$       ID        xO        yO        zO        xL        yL        zL   unused1
        29         0         0         0         1         0         0          
$       xP        yP        zP                                           unused2
         0         1         0                                                  
*DEFINE_COORDINATE_SYSTEM
$       ID        xO        yO        zO        xL        yL        zL   unused1
        58         0         0         0         1         0         0          
$       xP        yP        zP                                           unused2
         0         1         0                                                  
*SET_PART_LIST_TITLE
NS_Body2
         2
         1
*SET_NODE_LIST_TITLE
NS_Edges1
         3
         2        22        23        24        25        26         1        27
        47        48        49        50
*SET_NODE_LIST_TITLE
NS_Faces1
         4
         1         2         3         4         5         6         7         8
         9        10        11        12        13        14        15        16
        17        18        19        20        21        22        23        24
        25        26        27        28        29        30        31        32
        33        34        35        36        37        38        39        40
        41        42        43        44        45        46        47        48
        49        50        51        52        53        54        55        56
        57        58        59        60        61        62        63        64
        65        66        67        68        69        70        71        72
        73        74        75        76        77        78        79        80
        81        82        83        84        85        86        87        88
        89        90        91        92        93        94        95        96
        97        98        99       100       101       102       103       104
       105
*SET_SEGMENT_TITLE
NS_Faces1
         4
        51        84        85        85
        52        61        66        66
        56        77        62        62
        27        47        28        28
        55        75        57        57
        56        63        76        76
        58        98       100       100
        75       103       102       102
        54        73        58        58
        74       105       104       104
        56       102        77        77
        55        57        74        74
        61        67        86        86
        52        66        90        90
        53        81        87        87
        54        59        70        70
        52        69        60        60
        53        59        71        71
        53        68        60        60
$ ... 139 like lines cut
*SET_SHELL_LIST_TITLE
Selection
         5
        86
*CONTACT_AUTOMATIC_SINGLE_SURFACE_ID
$       ID                                                               heading
        90                                                      Body Interaction
$     ssid      msid     sstyp     mstyp    sboxid    mboxid       spr       mpr
         0         0         5         0         0         0         0         0
$       fs        fd        dc        vc       vdc    penchk        bt        dt
         0         0         0         0        10         0         0         0
$      sfs       sfm       sst       mst      sfst      sfmt       fsf       vsf
         0         0         0         0         0         0         0         0
$     soft   softscl    lcidab    maxpar     sbopt     depth     bsort    frcfrq
         2         0         0         0         3         5         0         0
$   penmax    tkhopt    shlthk     snlog      isym     i2d3d    sldthk    sldstf
         0         0         0         0         0         0         0         0
*BOUNDARY_SPC_SET
$     nsid       cid      dofx      dofy      dofz     dofrx     dofry     dofrz
         3         0         1         1         1         1         1         1
*DEFINE_CURVE
$       ID      sidr       sfa       sfo      offa      offo    dattyp   unused1
         1         0         0         0         0         0         0          
$                 a1                  o1                                 unused1
                   0                   1                                        
$                 a1                  o1                                 unused1
               0.001                   1                                        
$                 a1                  o1                                 unused1
                0.01                   1                                        
*LOAD_SEGMENT_SET
$     ssid      lcid        sf        at        dt                       unused1
         4         1         0         0         0                              
*DATABASE_GLSTAT
$       dt    binary      lcur     ioopt     dthff     binhf             unused1
     1E-06         3         0         0         0         0                   0
*DATABASE_SPCFORC
$       dt    binary      lcur     ioopt     dthff     binhf             unused1
     1E-06         3         0         0         0         0                   0
*DATABASE_RCFORC
$       dt    binary      lcur     ioopt     dthff     binhf             unused1
     1E-06         3         0         0         0         0                   0
*DATABASE_NCFORC
$       dt    binary      lcur     ioopt     dthff     binhf             unused1
     1E-06         3         0         0         0         0                   0
*DATABASE_BNDOUT
$       dt    binary      lcur     ioopt     dthff     binhf             unused1
     1E-06         3         0         0         0         0                   0
*DATABASE_NODOUT
$       dt    binary      lcur     ioopt     dthff     binhf             unused1
     1E-06         3         0         0         0         0                   0
*DATABASE_MATSUM
$       dt    binary      lcur     ioopt     dthff     binhf             unused1
     1E-06         3         0         0         0         0                   0
*DATABASE_ELOUT
$       dt    binary      lcur     ioopt     dthff     binhf             unused1
     1E-06         3         0         0         0         0                   0
*DATABASE_JNTFORC
$       dt    binary      lcur     ioopt     dthff     binhf             unused1
     1E-06         3         0         0         0         0                   0
*DATABASE_DEFORC
$       dt    binary      lcur     ioopt     dthff     binhf             unused1
     1E-06         3         0         0         0         0                   0
*DATABASE_TPRINT
$       dt    binary      lcur     ioopt     dthff     binhf             unused1
     1E-06         3         0         0         0         0                   0
*DATABASE_BINARY_D3PLOT
$       dt      lcdt      beam     npltc    psetid                       unused1
     5E-05         0         0         0         0                              
$    ioopt                                                               unused2
         0                                                                      
*DATABASE_BINARY_INTFOR
$       dt      lcdt      beam     npltc    psetid                        unused
     5E-05         0         0         0         0                              
*DATABASE_BINARY_D3PROP
$    ifile     imatl     iwall                                           unused2
         2         1         0                                                  
*SET_PART_LIST
         7
         1
*INTERFACE_SPRINGBACK_LSDYNA
$     psid      nshv     ftype   unused1    ftensr    nthhsv     rflag   intstrn
         7         0         3                   0         0         0         0
$     optc      sldo      ncyc    fsplit    ndflag     cflag     hflag   unused2
   OPTCARD         0         0         0         0         0         0          
$   Keyword Snippet
$   Do not leave any unintentional empty lines in this 
$ cmpflg = 1: write strains and stresses in the material coordinate system
$ maxint: number of integration points for the entire laminate. Set to 5
$ because the model has 5 layers.
*DATABASE_EXTENT_BINARY
$    neiph     neips    maxint    strflg    sigflg    epsflg    rltflg    engflg
         0        16         6        11         1         1         0         0
$   cmpflg    ieverp    beamip     dcomp      shge     stssz    n3thdt   ialemat
         1         0         0         0         0         0         0         0
$  nintsld   pkp_sen      sclp     hydro     msscl     therm    intout    nodout
         0         0         0         0         2         0                    
*END
*END
